
#======================================================================
# CRYSTAL DATA
#----------------------------------------------------------------------
data_VESTA_phase_1

_chemical_name_common                  'Ta4 As4'
_cell_length_a                         10.330880
_cell_length_b                         3.443627
_cell_length_c                         35.207649
_cell_angle_alpha                      90.000000
_cell_angle_beta                       90.000000
_cell_angle_gamma                      90.000000
_cell_volume                           1252.536562
_space_group_name_H-M_alt              'P 1'
_space_group_IT_number                 1

loop_
_space_group_symop_operation_xyz
   'x, y, z'
   'x, y, z+1/3'
   'x, y, z+2/3'
   'x+1/3, y, z'
   'x+1/3, y, z+1/3'
   'x+1/3, y, z+2/3'
   'x+2/3, y, z'
   'x+2/3, y, z+1/3'
   'x+2/3, y, z+2/3'

loop_
   _atom_site_label
   _atom_site_occupancy
   _atom_site_fract_x
   _atom_site_fract_y
   _atom_site_fract_z
   _atom_site_adp_type
   _atom_site_U_iso_or_equiv
   _atom_site_type_symbol
   Ta0        1.0     0.000000     0.000000     0.249989    Uiso  ? Ta
   Ta0        1.0     0.166667     0.500000     0.083322    Uiso  ? Ta
   Ta0        1.0     0.000000     0.500000     0.333322    Uiso  ? Ta
   Ta0        1.0     0.166667     0.000000     0.166656    Uiso  ? Ta
   As1        1.0     0.000000     0.000000     0.110877    Uiso  ? As
   As1        1.0     0.166667     0.500000     0.277544    Uiso  ? As
   As1        1.0     0.000000     0.500000     0.194211    Uiso  ? As
   As1        1.0     0.166667     0.000000     0.027544    Uiso  ? As
